*Heading
Cavity inflation in the presence of surface tension
**
** This input file is for the simulation of the growth of a spherical 
**    or cylindrical cavity under internal pressure in a nearly-infinite 
**    Neo-Hookean elastomeric matrix in the presence of surface tension 
**    on the hole face. It is to be used with the UEL subroutine, 
**    uel_surften_2D.for.
**
** UNITS:  Length - microns, Time - sec, Angle - radians,
**	   Force - microNewtons, Mass - kilograms,
**	   Stress - microNewton/micron^2 = MPa, 
**	   Surface Tension = microNewtons/micron
**
** REDUCED INTEGRATION: In order to use reduced integration four 
**     changes should be made:
**
**     1. In the '*User element' command, Variables should be changed
**        from 36 to 9.
**     2. The element type of the dummy mesh should be changed
**        from CAX4 to CAX4R.
**     3. In the Material Definition section of this input file,
**        the '*Hourglass Stiffness' command and subsequent line
**        should be uncommented.
**     4. In the UEL subroutine, nInt should be set to 1.
**
** DISPLACEMENT STEP RESTRICTION: To specify the maximum allowable 
**     displacement increment in terms of a fraction of the element
**     size, set the parameter maxDisp in the UEL subroutine.  For 
**     the cavitation simulations, maxDisp=0.20 was used.
**
** David L. Henann, July 2013
**
************************************************************************
**			PARAMETERS
************************************************************************
**
*Parameter
**
** Material properties
** Shear modulus (MPa)
G0 = 0.001
**
** Bulk modulus (MPa)
Kbulk = 1.0
**
** Max normalized surface tension
gamma_norm = 4.0
**
** Surface tension (N/m)
gamma = gamma_norm*G0*1.0
**
** Ramp time (s)
tf = 1.0
**
** Axisymmetric/Plane strain flag
**   pe = 0 Axi, pe = 1 PE
pe = 0
**
************************************************************************
**			MODEL DEFINITION
************************************************************************
**
** Nodes
**
*Node, nset=nAll
      1,           1.,           0.
      2,   1.07109797,           0.
      3,   1.14532363,           0.
      4,   1.22281492,           0.
      5,   1.30371511,           0.
      6,   1.38817453,           0.
      7,   1.47634959,           0.
      8,   1.56840372,           0.
      9,   1.66450763,           0.
     10,   1.76483941,           0.
     11,   1.86958528,           0.
     12,   1.97893918,           0.
     13,   2.09310389,           0.
     14,     2.212291,           0.
     15,    2.3367219,           0.
     16,   2.46662664,           0.
     17,   2.60224628,           0.
     18,   2.74383235,           0.
     19,   2.89164734,           0.
     20,   3.04596519,           0.
** ... 4111 like lines cut
**
** Elements
**
*User Element,Nodes=4,Type=U1,Iproperties=2,Properties=5,Coordinates=2,Variables=36,Unsymm
1,2
**
*Element, type=U1, elset=elAll
   1,    1,    2,   83,   82
   2,    2,    3,   84,   83
   3,    3,    4,   85,   84
   4,    4,    5,   86,   85
   5,    5,    6,   87,   86
   6,    6,    7,   88,   87
   7,    7,    8,   89,   88
   8,    8,    9,   90,   89
   9,    9,   10,   91,   90
  10,   10,   11,   92,   91
  11,   11,   12,   93,   92
  12,   12,   13,   94,   93
  13,   13,   14,   95,   94
  14,   14,   15,   96,   95
  15,   15,   16,   97,   96
  16,   16,   17,   98,   97
  17,   17,   18,   99,   98
  18,   18,   19,  100,   99
  19,   19,   20,  101,  100
  20,   20,   21,  102,  101
** ... 3980 like lines cut
**
** Make the dummy mesh, shares nodes with the real mesh,
**  allows visualization of the results, access to 
**  hourglass controls, and access to mechanical, 
**  traction-type boundary conditions
**
*Element, type=CAX4, elset=ElDummy
10001,1,2,83,82
10002,2,3,84,83
10003,3,4,85,84
10004,4,5,86,85
10005,5,6,87,86
10006,6,7,88,87
10007,7,8,89,88
10008,8,9,90,89
10009,9,10,91,90
10010,10,11,92,91
10011,11,12,93,92
10012,12,13,94,93
10013,13,14,95,94
10014,14,15,96,95
10015,15,16,97,96
10016,16,17,98,97
10017,17,18,99,98
10018,18,19,100,99
10019,19,20,101,100
10020,20,21,102,101
** ... 3980 like lines cut
**
** Sets
**
*Elset, elset=Inner, generate
    1,  3921,    80
*Node, nset=InnerRefPt
 999998,           1.,           0.,           0.
*Node, nset=OuterRefPt
 999999,          50.,           0.,           0.
*Nset, nset=Inner, generate
    1,  4051,    81
*Nset, nset=Outer, generate
   81,  4131,    81
*Nset, nset=thetaSymm
    1,    2,    3,    4,    5,    6,    7,    8,    9,   10,   11,   12,   13,   14,   15,   16
   17,   18,   19,   20,   21,   22,   23,   24,   25,   26,   27,   28,   29,   30,   31,   32
   33,   34,   35,   36,   37,   38,   39,   40,   41,   42,   43,   44,   45,   46,   47,   48
   49,   50,   51,   52,   53,   54,   55,   56,   57,   58,   59,   60,   61,   62,   63,   64
   65,   66,   67,   68,   69,   70,   71,   72,   73,   74,   75,   76,   77,   78,   79,   80
   81, 4051, 4052, 4053, 4054, 4055, 4056, 4057, 4058, 4059, 4060, 4061, 4062, 4063, 4064, 4065
 4066, 4067, 4068, 4069, 4070, 4071, 4072, 4073, 4074, 4075, 4076, 4077, 4078, 4079, 4080, 4081
 4082, 4083, 4084, 4085, 4086, 4087, 4088, 4089, 4090, 4091, 4092, 4093, 4094, 4095, 4096, 4097
 4098, 4099, 4100, 4101, 4102, 4103, 4104, 4105, 4106, 4107, 4108, 4109, 4110, 4111, 4112, 4113
 4114, 4115, 4116, 4117, 4118, 4119, 4120, 4121, 4122, 4123, 4124, 4125, 4126, 4127, 4128, 4129
 4130, 4131
*Nset, nset=Transformed
thetaSymm,  
Inner, 
InnerRefPt, 
Outer, 
OuterRefPt, 
*Transform, nset=Transformed, type=C
          0.,           0.,           0.,           0.,           0.,           1.
************************************************************************
**			MATERIAL DEFINITION
************************************************************************
**
** Material properties for the real material
**
*uel property,elset=elall
*******************************************************************
**G0	Kbulk	Im	Gnoneq	eta	pe	matflag
<G0>,	<Kbulk>, 0.0,	0.0,	1.0,	<pe>,	1
**
*******************************************************************
**
** Dummy mesh material properties
**
*Solid section, elset=ElDummy, material=Material-1
***Hourglass stiffness
**250.0
**
*Material, name=Material-1
** The dummy mesh stiffness is very small
*Elastic
1.e-20
************************************************************************
**			   AMPLITUDE
************************************************************************
*Amplitude, name=amp-1
0.0,0.0,<tf>,1.0
************************************************************************
**			  CONSTRAINTS
************************************************************************
*Equation
2
Inner, 1, 1.
InnerRefPt, 1, -1.
*Equation
2
Outer, 1, 1.
OuterRefPt, 1, -1.
************************************************************************
**			BOUNDARY CONDITIONS
************************************************************************
*Boundary
thetaSymm,2,2
************************************************************************
**			STEP DEFINITION
************************************************************************
*Step, Name=ST, nlgeom=yes, unsymm=yes, inc=50000
*Static
0.01,<tf>,1.e-8,0.01
*CONTROLS, PARAMETERS=LINE SEARCH
10,1.0,0.0001,0.25,0.10
*CONTROLS, PARAMETERS=TIME INCREMENTATION
,,,,,,,10,,,,,,
**
*Dload, amplitude = amp-1
Inner,U4,<gamma>
**
*Output, field, number interval=20
*node output, nset=nall
u
*Element output, elset=ElDummy
le
**
*Output, history, time interval = 0.02
*node output, nset=InnerRefPt
u1,rf1
*node output, nset=OuterRefPt
u1,rf1
**
*End Step
************************************************************************
*Step, Name=Deform, nlgeom=yes, unsymm=yes, inc=50000
*Static
0.01,<tf>,1.e-8,0.01
*CONTROLS, PARAMETERS=LINE SEARCH
10,1.0,0.0001,0.25,0.10
*CONTROLS, PARAMETERS=TIME INCREMENTATION
,,,,,,,10,,,,,,
**
*Dload
Inner,U4,<gamma>
*Boundary, type=velocity
InnerRefPt,1,1,5.0
**
*Output, field, number interval=20
*node output, nset=nall
u
*Element output, elset=ElDummy
le
**
*Output, history, time interval = 0.02
*node output, nset=InnerRefPt
u1,rf1
*node output, nset=OuterRefPt
u1,rf1
**
*End Step
************************************************************************